<?xml version="1.0" encoding="UTF-8"?>

<!-- generated on 2023-03-21 16:10:28 by Eclipse SUMO sumo Version 1.16.0
-->

<configuration xmlns:xsi="http://www.w3.org/2001/XMLSchema-instance" xsi:noNamespaceSchemaLocation="http://sumo.dlr.de/xsd/sumoConfiguration.xsd">

    <input>
        <net-file value="4x4.net.xml"/>
        <route-files value="4x4c1c2c1c2.rou.xml"/>
    </input>

</configuration>
